$# LS-DYNA Keyword file created by LS-PREPOST 3.0(Beta) - 18Mar2010(15:42)
$# Created on Dec-01-2010 (11:52:14)
*KEYWORD  
*TITLE
$# title
LS-DYNA keyword deck by LS-PrePost 
*CONTROL_IMPLICIT_AUTO
$    IAUTO    ITEOPT    ITEWIN     DTMIN     DTMAX
$#   iauto    iteopt    itewin     dtmin     dtmax     dtexp
         1       100         0 1.0000E-7 1.0000E-4     0.000
*CONTROL_IMPLICIT_DYNAMICS
$    IMASS      GAMA      BETA
$#   imass     gamma      beta    tdybir    tdydth    tdybur     irate
         0  0.500000  0.250000     0.000     0.000     0.000         0
*CONTROL_IMPLICIT_GENERAL
$   IMFLAG       DT0
$#  imflag       dt0    imform      nsbs       igs     cnstn      form    zero_v
         1  0.010000         0         0         0         0         0         0
*CONTROL_IMPLICIT_NONLINEAR
$   NSOLVR    ILIMIT    MAXREF     DCTOL     ECTOL               LSTOL
$#  nsolvr    ilimit    maxref     dctol     ectol  not used     lstol      rssf
         1        20         5  0.001000  0.010000     0.000  0.900000     0.000
$    DNORM    DIVERG     ISTIF    LPRINT
$#   dnorm    diverg     istif   nlprint
         2         2         1         1
$    IAUTO    ITEOPT    ITEWIN     DTMIN     DTMAX
$#  arcctl    arcdir    arclen    arcmth    arcdmp
         0         0     0.000         1         2
*CONTROL_TERMINATION
$#  endtim    endcyc     dtmin    endeng    endmas
 1.0000E-4         0     0.000     0.000     0.000
*DATABASE_NODFOR
$#      dt    binary      lcur     ioopt
  0.010000         0         0         1
*DATABASE_RCFORC
$#      dt    binary      lcur     ioopt
     0.000         0         0         1
*DATABASE_SLEOUT
$#      dt    binary      lcur     ioopt
  0.010000         0         0         1
*DATABASE_BINARY_D3PLOT
$#      dt      lcdt      beam     npltc    psetid
 1.0000E-5         0         0         0         0                                                                                               
*BOUNDARY_SPC_SET
$#    nsid       cid      dofx      dofy      dofz     dofrx     dofry     dofrz
         1         0         0         0         1         0         0         0
*SET_NODE_LIST
$#     sid       da1       da2       da3       da4    solver
         1     0.000     0.000     0.000     0.000          
$#    nid1      nid2      nid3      nid4      nid5      nid6      nid7      nid8
      1205      1203      1204      1202      1206      1201         0         0
*BOUNDARY_SPC_SET
$#    nsid       cid      dofx      dofy      dofz     dofrx     dofry     dofrz
         2         0         1         0         0         0         0         0
*SET_NODE_LIST
$#     sid       da1       da2       da3       da4    solver
         2     0.000     0.000     0.000     0.000          
$#    nid1      nid2      nid3      nid4      nid5      nid6      nid7      nid8
      1662         1        26       434       433      1659         9        21
       448        22       436         6       437         5       431      1655
      1656         8       435       450        20        19         2       452
       451      1654      1653      1663      1664         3       449       432
      1657        25      1660      1661        23       447        24         7
         4      1658       422        56        55       409      1818      1819
       410      1820       411        38      1825       414        37      1824
       425      1814      1815        43       423       408        40        39
       421        58        57      1817        41       412        42       424
        54      1816       426       413        60      1822      1823      1821
        59        36        35        53         0         0         0         0
*BOUNDARY_SPC_SET
$#    nsid       cid      dofx      dofy      dofz     dofrx     dofry     dofrz
         5         0         0         1         1         0         0         0
*SET_NODE_LIST
$#     sid       da1       da2       da3       da4    solver
         5     0.000     0.000     0.000     0.000          
$#    nid1      nid2      nid3      nid4      nid5      nid6      nid7      nid8
       513       457       509       456       455       505      1640      1636
      1639      1635      1632      1631      1630      1634       511       507
       510       416       516       417       415       517      1622      1623
       495        89      1615      1652       494       466        78       514
       419       418       470       486       485       529        94        93
       524       520       525       480       475       479       523       528
        92       467       483       454       487       471       458       500
       506       499       478       477       482       473       472       527
       493        77        76       468       481      1627      1644      1643
       460       405       406       404       464       490       489       515
       512       453        73      1638       403       402       498      1628
       491        74       476      1617      1651      1616       488      1619
      1649        79      1647      1642      1646      1650        75       526
       496       522       469      1618       465       521       504        91
        90       484       492      1637       518       519      1621      1633
       461      1620       459       501      1624       463       474      1648
       497      1626      1629      1625       462      1641      1645       508
       503       502       401       420       407       444      1235       445
      1137      1133      1132       118       117      1123       119      1126
      1211      1227      1124      1141      1145      1136      1226      1225
$ ... 16 like lines cut
*LOAD_NODE_SET
$#    nsid       dof      lcid        sf       cid        m1        m2        m3
         4         2         3  1.000000         0         0         0         0
         3         2         3  1.000000         0         0         0         0
*PART
$# title
PART1_EG1                                                                       
$#     pid     secid       mid     eosid      hgid      grav    adpopt      tmid
         1         1         1         0         0         0         0         0
*SECTION_SOLID
$#   secid    elform       aet
         1        10         0
*MAT_ELASTIC_TITLE
Default MAT1 MAT_ELASTIC
$#     mid        ro         e        pr        da        db  not used
         1 7800.00001.8500E+11  0.300000     0.000     0.000         0
*DEFINE_CURVE
$#    lcid      sidr       sfa       sfo      offa      offo    dattyp
         1         0  1.000000  1.000000     0.000     0.000         0
$#                a1                  o1
               0.000      1.1200000e-005
           1.0000000      1.1200000e-005
*DEFINE_CURVE
$#    lcid      sidr       sfa       sfo      offa      offo    dattyp
         2         0  1.000000  1.000000     0.000     0.000         0
$#                a1                  o1
               0.000         200.0000000
           1.0000000         200.0000000
*DEFINE_CURVE
$#    lcid      sidr       sfa       sfo      offa      offo    dattyp
         3         0  1.000000  1.000000     0.000     0.000         0
$#                a1                  o1
               0.000        -714.2800293
           1.0000000        -714.2800293
*SET_NODE_LIST
         3     0.000     0.000     0.000     0.000          
      1603      1609      1601      1602      1600      1598      1599      1607
      1596      1597      1608      1606      1604      1605         0         0
*SET_NODE_LIST
         4     0.000     0.000     0.000     0.000          
      1802      1808      1800      1806      1807      1805      1799      1797
      1801      1796      1795      1803      1798      1804         0         0
*ELEMENT_SOLID
$#   eid     pid      n1      n2      n3      n4      n5      n6      n7      n8
       1       1    2677    2678    2679    2680    2680    2680    2680    2680
       2       1    2677     819    2679     820     820     820     820     820
       3       1    2677    2681     819     178     178     178     178     178
       4       1    2677    2680    2681      99      99      99      99      99
       5       1    2682    2683    1745    2684    2684    2684    2684    2684
       6       1    2682    2683    2685    2686    2686    2686    2686    2686
       7       1    1945    2687    2686    2682    2682    2682    2682    2682
       8       1    2688     101    2689     821     821     821     821     821
       9       1    2682    1745    2683    2690    2690    2690    2690    2690
      10       1    1945    2682    1952    2687    2687    2687    2687    2687
      11       1    2682    2683    2686    2690    2690    2690    2690    2690
      12       1    2691    2692    1881    2693    2693    2693    2693    2693
      13       1    2693    2692    1881    2694    2694    2694    2694    2694
      14       1    2691    2693    2695    2696    2696    2696    2696    2696
      15       1    2691    2697    2695    2698    2698    2698    2698    2698
      16       1    2691    2698    2218    2697    2697    2697    2697    2697
      17       1    2698    2217    2699    2693    2693    2693    2693    2693
      18       1    2693    2217    2699    2378    2378    2378    2378    2378
      19       1    1472    2700    2686    2701    2701    2701    2701    2701
      20       1    2400    2702    2703    1473    1473    1473    1473    1473
$ ... 12509 like lines cut
*NODE
$#   nid               x               y               z      tc      rc
       1      -0.0570000       0.0121244       0.0070000       0       0
       2      -0.0570000       0.0098995       0.0098995       0       0
       3      -0.0570000       0.0070000       0.0121244       0       0
       4      -0.0570000       0.0036235       0.0135230       0       0
       5      -0.0570000  1.7144489e-018       0.0140000       0       0
       6      -0.0570000      -0.0036235       0.0135230       0       0
       7      -0.0570000      -0.0070000       0.0121244       0       0
       8      -0.0570000      -0.0098995       0.0098995       0       0
       9      -0.0570000      -0.0121244       0.0070000       0       0
      10      -0.0560000      -0.0129904       0.0075000       0       0
      11      -0.0560000      -0.0106066       0.0106066       0       0
      12      -0.0560000      -0.0075000       0.0129904       0       0
      13      -0.0560000      -0.0038823       0.0144889       0       0
      14      -0.0560000  1.8369094e-018       0.0150000       0       0
      15      -0.0560000       0.0038823       0.0144889       0       0
      16      -0.0560000       0.0075000       0.0129904       0       0
      17      -0.0560000       0.0106066       0.0106066       0       0
      18      -0.0560000       0.0129904       0.0075000       0       0
      19      -0.0570000           0.000      -0.0140000       0       0
      20      -0.0570000       0.0036235      -0.0135230       0       0
$ ... 3484 like lines cut
*END
*COMPONENT
$#    clid    color1    color2    color3    color4                              
         1  0.769000  0.004000  0.110000     0.000         0         0         0
$# name
Assembly 1                      
*COMPONENT_PART
$#     pid      clid
         1         1
*COMPONENT_END
