$# LS-DYNA Keyword file created by LS-PrePost 3.1 (Beta) - 20Oct2010(08:03)
$# Created on Feb-06-2013 (16:57:25)
*KEYWORD  
*TITLE
$# title
LS-DYNA keyword deck by LS-Prepost                                              
*CONTROL_HOURGLASS
$#     ihq        qh
         4  0.100000
*CONTROL_TERMINATION
$#  endtim    endcyc     dtmin    endeng    endmas
 50.000000         0     0.000     0.000     0.000
*CONTROL_TIMESTEP
$#  dtinit    tssfac      isdo    tslimt     dt2ms      lctm     erode     ms1st
 1.0000E-5  0.600000         0     0.000     0.000         1         0         0
$#  dt2msf   dt2mslc     imscl
     0.000         0         0
*DATABASE_BINARY_D3PLOT
$#      dt      lcdt      beam     npltc    psetid
 1.0000E-2         0         0         0         0
$#   ioopt
         0
*DATABASE_BINARY_D3THDT
$#      dt      lcdt      beam     npltc    psetid
  0.100000         0         0         0         0
*DATABASE_FORMAT
$#   iform   ibinary
         0         0
*DATABASE_EXTENT_BINARY
$#   neiph     neips    maxint    strflg    sigflg    epsflg    rltflg    engflg
         0         0         3         1         0         0         0         0
$#  cmpflg    ieverp    beamip     dcomp      shge     stssz    n3thdt   ialemat
         0         0         4         0         0         0         0         0
$# nintsld   pkp_sen      sclp    unused     msscl     therm    intout    nodout
         0         0  1.000000         0         0         0STRESS    STRESS    
*DATABASE_EXTENT_BINARY
$#   neiph     neips    maxint    strflg    sigflg    epsflg    rltflg    engflg
         0         0         3         1         0         0         0         0
$#  cmpflg    ieverp    beamip     dcomp      shge     stssz    n3thdt   ialemat
         0         0         4         0         0         0         0         0
$# nintsld   pkp_sen      sclp    unused     msscl     therm    intout    nodout
         0         0  1.000000         0         0         0STRESS    STRESS    
*DATABASE_EXTENT_BINARY
$#   neiph     neips    maxint    strflg    sigflg    epsflg    rltflg    engflg
         0         0         3         1         0         0         0         0
$#  cmpflg    ieverp    beamip     dcomp      shge     stssz    n3thdt   ialemat
         0         0         4         0         0         0         0         0
$# nintsld   pkp_sen      sclp    unused     msscl     therm    intout    nodout
         0         0  1.000000         0         0         0STRESS    STRESS    
*BOUNDARY_SPC_SET
$#    nsid       cid      dofx      dofy      dofz     dofrx     dofry     dofrz
         2         0         1         1         1         0         0         0
*SET_NODE_LIST
$#     sid       da1       da2       da3       da4    solver
         2     0.000     0.000     0.000     0.000MECH      
$#    nid1      nid2      nid3      nid4      nid5      nid6      nid7      nid8
       845      2453      2443       836       838       852      1664      1671
      3064         0         0         0         0         0         0         0
*PART
$# title
Part          1 for Mat         1 and Elem Type         1                       
$#     pid     secid       mid     eosid      hgid      grav    adpopt      tmid
         1         1         1         0         0         0         0         0
*SECTION_SOLID
$#   secid    elform       aet
         1         1         0
*MAT_PLASTIC_KINEMATIC
$#     mid        ro         e        pr      sigy      etan      beta
         1  7.850000 200.00000  0.300000  0.230000  0.630000     0.000
$#     src       srp        fs        vp
     0.000     0.000     0.000     0.000
*INITIAL_VELOCITY
$#    nsid    nsidex     boxid    irigid
         1         0         0         0
$#      vx        vy        vz       vxr       vyr       vzr
 -0.100000     0.000     0.000     0.000     0.000     0.000
*DEFINE_CURVE
$#    lcid      sidr       sfa       sfo      offa      offo    dattyp
         1         0  1.000000  1.000000     0.000     0.000         0
$#                a1                  o1
               0.000           1.0000000
      1.0000000e+005           1.0000000
*SET_NODE_LIST
$#     sid       da1       da2       da3       da4    solver
         1     0.000     0.000     0.000     0.000MECH      
$#    nid1      nid2      nid3      nid4      nid5      nid6      nid7      nid8
         1         2         3         4         5         6         7         8
         9        10        11        12        13        14        15        16
        17        18        19        20        21        22        23        24
        25        26        27        28        29        30        31        32
        33        34        35        36        37        38        39        40
        41        42        43        44        45        46        47        48
        49        50        51        52        53        54        55        56
        57        58        59        60        61        62        63        64
        65        66        67        68        69        70        71        72
        73        74        75        76        77        78        79        80
        81        82        83        84        85        86        87        88
        89        90        91        92        93        94        95        96
        97        98        99       100       101       102       103       104
       105       106       107       108       109       110       111       112
       113       114       115       116       117       118       119       120
       121       122       123       124       125       126       127       128
       129       130       131       132       133       134       135       136
       137       138       139       140       141       142       143       144
       145       146       147       148       149       150       151       152
       153       154       155       156       157       158       159       160
$ ... 373 like lines cut
*ELEMENT_SOLID
$#   eid     pid      n1      n2      n3      n4      n5      n6      n7      n8
       1       1       1       2       6       5     168     169     170     171
       2       1     168     169     170     171     172     173     174     175
       3       1     172     173     174     175     176     177     178     179
       4       1     176     177     178     179     180     181     182     183
       5       1       2       3       7       6     169     184     185     170
       6       1     169     184     185     170     173     186     187     174
       7       1     173     186     187     174     177     188     189     178
       8       1     177     188     189     178     181     190     191     182
       9       1       3       4       8       7     184     192     193     185
      10       1     184     192     193     185     186     194     195     187
      11       1     186     194     195     187     188     196     197     189
      12       1     188     196     197     189     190     198     199     191
      13       1       5       6      10       9     171     170     200     201
      14       1     171     170     200     201     175     174     202     203
      15       1     175     174     202     203     179     178     204     205
      16       1     179     178     204     205     183     182     206     207
      17       1       6       7      11      10     170     185     208     200
      18       1     170     185     208     200     174     187     209     202
      19       1     174     187     209     202     178     189     210     204
      20       1     178     189     210     204     182     191     211     206
$ ... 2316 like lines cut
*NODE
$#   nid               x               y               z      tc      rc
       1      19.2000008       1.7850000           0.000       0       0
       2      19.2000008       2.1066666           0.000       0       0
       3      19.2000008       2.4283333           0.000       0       0
       4      19.2000008       2.7500000           0.000       0       0
       5      18.7000008       1.7850000           0.000       0       0
       6      18.7000008       2.1066666           0.000       0       0
       7      18.7000008       2.4283333           0.000       0       0
       8      18.7000008       2.7500000           0.000       0       0
       9      18.2000008       1.7850000           0.000       0       0
      10      18.2000008       2.1066666           0.000       0       0
      11      18.2000008       2.4283333           0.000       0       0
      12      18.2000008       2.7500000           0.000       0       0
      13      17.7000008       1.7850000           0.000       0       0
      14      17.7000008       2.1066666           0.000       0       0
      15      17.7000008       2.4283333           0.000       0       0
      16      17.7000008       2.7500000           0.000       0       0
      17      17.2000008       1.7850000           0.000       0       0
      18      17.2000008       2.1066666           0.000       0       0
      19      17.2000008       2.4283333           0.000       0       0
      20      17.2000008       2.7500000           0.000       0       0
$ ... 3117 like lines cut
*END
*COMPONENT
$#    clid    color1    color2    color3    color4                              
         1  0.769000  0.004000  0.110000     0.000         0         0         0
$# name
Part 1                          
*COMPONENT_PART
$#     pid      clid
         1         1
*COMPONENT_END
